Measured thermophysical data. 
Source: 
Compound 1: 1,2-dichloroethane, C2H4Cl2, purity 99%

System: ; phases: Liquid
Fixed: Pressure, kPa = 101.325
Property: Mass density, kg/m3 (Liquid); method: Vibrating tube method
Temperature, K	Mass density, kg/m3	uncertainty
278.15	1274.89	.0382467
298.15	1245.98	.0373794
323.15	1208.91	.0362673
338.15	1186.31	.0355893

System: ; phases: Liquid
Property: Isobaric coefficient of expansion, 1/K (Liquid); method: calculated from densities and volume ratios
Temperature, K	Pressure, kPa	Isobaric coefficient of expansion, 1/K	uncertainty
278.15	100	.00112	.000028
278.15	10000	.00109	.00002725
278.15	20000	.00104	.000026
278.15	50000	.00091	.00002275
278.15	100000	.00076	.000019
278.15	150000	.00067	.00001675
288.15	100	.00114	.0000285
288.15	10000	.0011	.0000275
288.15	20000	.00106	.0000265
288.15	50000	.00092	.000023
288.15	100000	.00077	.00001925
288.15	150000	.00068	.000017
288.15	200000	.00051	.00001275
298.15	100	.00117	.00002925
298.15	10000	.00112	.000028
298.15	20000	.00107	.00002675
298.15	50000	.00093	.00002325
298.15	100000	.00079	.00001975
298.15	150000	.0007	.0000175
298.15	200000	.00056	.000014
313.15	100	.00121	.00003025
313.15	10000	.00114	.0000285
313.15	20000	.00108	.000027
313.15	50000	.00095	.00002375
313.15	100000	.00081	.00002025
313.15	150000	.00072	.000018
313.15	200000	.00063	.00001575
323.15	100	.00123	.00003075
323.15	10000	.00115	.00002875
323.15	20000	.00109	.00002725
323.15	50000	.00096	.000024
323.15	100000	.00082	.0000205
323.15	150000	.00073	.00001825
323.15	200000	.00068	.000017
338.15	100	.00126	.0000315
338.15	10000	.00117	.00002925
338.15	20000	.00111	.00002775
338.15	50000	.00097	.00002425
338.15	100000	.00084	.000021
338.15	150000	.00075	.00001875
338.15	200000	.00075	.00001875

System: ; phases: Liquid
Property: Isothermal compressibility, 1/kPa (Liquid); method: calculated from given equation
Temperature, K	Pressure, kPa	Isothermal compressibility, 1/kPa	uncertainty
278.15	100	.000000723	.000000010845
278.15	10000	.000000666	.00000000999
278.15	20000	.00000062	.0000000093
278.15	50000	.000000524	.00000000786
278.15	100000	.000000433	.000000006495
278.15	150000	.000000363	.000000005445
278.15	200000	.000000282	.00000000423
288.15	100	.000000763	.000000011445
288.15	10000	.000000709	.000000010635
288.15	20000	.000000663	.000000009945
288.15	50000	.000000558	.00000000837
288.15	100000	.000000448	.00000000672
288.15	150000	.000000379	.000000005685
288.15	200000	.000000327	.000000004905
288.15	250000	.00000028	.0000000042
298.15	100	.000000812	.00000001218
298.15	10000	.000000757	.000000011355
298.15	20000	.000000709	.000000010635
298.15	50000	.000000594	.00000000891
298.15	100000	.000000469	.000000007035
298.15	150000	.000000389	.000000005835
298.15	200000	.000000333	.000000004995
298.15	250000	.00000029	.00000000435
313.15	100	.000000917	.000000013755
313.15	10000	.00000085	.00000001275
313.15	20000	.000000791	.000000011865
313.15	50000	.000000655	.000000009825
313.15	100000	.00000051	.00000000765
313.15	150000	.00000042	.0000000063
313.15	200000	.000000359	.000000005385
313.15	250000	.000000313	.000000004695
323.15	100	.000000975	.000000014625
323.15	10000	.000000906	.00000001359
323.15	20000	.000000845	.000000012675
323.15	50000	.000000698	.00000001047
323.15	100000	.000000536	.00000000804
323.15	150000	.000000436	.00000000654
323.15	200000	.00000037	.00000000555
323.15	250000	.000000327	.000000004905
338.15	100	.000001117	.000000016755
338.15	10000	.000001014	.00000001521
338.15	20000	.000000928	.00000001392
338.15	50000	.00000074	.0000000111
338.15	100000	.000000559	.000000008385
338.15	150000	.000000456	.00000000684
338.15	200000	.000000386	.00000000579
338.15	250000	.000000332	.00000000498

System: ; phases: Liquid
Property: Self diffusion coefficient, m2/s (Liquid); method: Diaphragm Cell
Temperature, K	Pressure, kPa	Self diffusion coefficient, m2/s	uncertainty
278.15	100	0.000000001184	.00000000001184
278.15	40000	0.000000000967	.00000000000967
278.15	80700	0.000000000795	.00000000000795
278.15	135200	0.000000000604	.00000000000604
288.15	100	0.00000000146	.0000000000146
288.15	58300	0.000000001098	.00000000001098
288.15	99500	0.000000000892	.00000000000892
288.15	132300	0.000000000756	.00000000000756
288.15	225600	0.000000000507	.00000000000507
313.15	100	0.00000000211	.0000000000211
313.15	34300	0.00000000159	.0000000000159
313.15	37600	0.000000001626	.00000000001626
313.15	67400	0.000000001363	.00000000001363
313.15	130700	0.000000000947	.00000000000947
313.15	283000	0.00000000065	.0000000000065

System: ; phases: Liquid
Property: Self diffusion coefficient, m2/s (Liquid); method: NMR spin-echo technique
Temperature, K	Pressure, kPa	Self diffusion coefficient, m2/s	uncertainty
298.15	100	0.000000001692	.00000000001692
298.15	16600	0.000000001521	.00000000001521
298.15	49400	0.000000001298	.00000000001298
298.15	100800	0.000000000985	.00000000000985
298.15	150000	0.000000000793	.00000000000793
298.15	201400	0.000000000652	.00000000000652
298.15	240300	0.000000000566	.00000000000566

System: ; phases: Liquid
Property: Viscosity, Pa*s (Liquid); method: Falling or rolling sphere viscometry
Temperature, K	Pressure, kPa	Viscosity, Pa*s	uncertainty
298.15	100	.000777	.000003885
313.15	100	.000647	.000003235
323.15	100	.000585	.000002925

System: ; phases: Liquid
Property: Viscosity, Pa*s (Liquid); method: Falling or rolling sphere viscometry
Temperature, K	Pressure, kPa	Viscosity, Pa*s	uncertainty
278.15	100	1	.005
278.15	44600	1.332	.00666
278.15	85000	1.702	.00851
278.15	132300	2.313	.011565
288.15	100	1	.005
288.15	48500	1.348	.00674
288.15	92700	1.743	.008715
288.15	148800	2.322	.01161
288.15	188200	2.813	.014065
288.15	233800	3.621	.018105
298.15	100	1	.005
298.15	39500	1.291	.006455
298.15	67500	1.516	.00758
298.15	119600	1.986	.00993
298.15	185400	2.664	.01332
298.15	238900	3.339	.016695
298.15	274100	3.874	.01937
313.15	100	1	.005
313.15	35800	1.259	.006295
313.15	71500	1.53	.00765
313.15	117100	1.916	.00958
313.15	187800	2.568	.01284
313.15	234200	3.039	.015195
313.15	300000	3.887	.019435
323.15	100	1	.005
323.15	41800	1.265	.006325
323.15	84700	1.599	.007995
323.15	142700	2.114	.01057
323.15	212900	2.912	.01456
323.15	256400	3.443	.017215
323.15	330300	4.512	.02256
