Measured thermophysical data. CO2 as a Separation Switch for Ionic Liquid/Organic Mixtures
Source: J. Am. Chem. Soc., 2002
Compound 1: 1-N-butyl-3-methylimidazolium hexafluorophosphate, C8H15F6N2P
Compound 2: carbon dioxide, CO2
Compound 3: methanol, CH4O

System: ; phases: Liquid mixture 1, Liquid mixture 2, Gas
Property: Phase boundary pressure, kPa (Liquid mixture 1); method: Closed cell (Static) method
Temperature, K	Mole fraction	Phase boundary pressure, kPa	uncertainty
313.15	.7795	7969	
313.15	.5486	7384	
313.15	.4771	6949	
313.15	.4989	6912	
298.15	.3899	4689	

System: ; phases: Liquid mixture 1, Liquid mixture 2, Gas
Property: Mole fraction (Liquid mixture 1); method: Synthetic method
Temperature, K	Mole fraction	Mole fraction	uncertainty
313.15	.7795	.2203	.015
313.15	.5486	.4468	.015
313.15	.4771	.4972	.015
313.15	.4989	.4558	.015
298.15	.3899	.555	.015

System: ; phases: Liquid mixture 1, Gas, Liquid mixture 2
Property: Critical pressure, kPa (Liquid mixture 1); method: Direct measurement
Temperature, K	Critical pressure, kPa	uncertainty
313.15	8215	25
313.15	8201	25
313.15	8182	25
313.15	8216	25
