Measured thermophysical data. Enthalpies of Solution of Organic Solutes in the Ionic Liquid 1-Methyl-3-ethyl-imidazolium Bis-(trifluoromethyl-sulfonyl) Amide
Source: J. Solution Chem., 2003
Compound 1: 1H-imidazolium, 1-ethyl-3-methyl-, salt with 1,1,1-trifluoro-N-*(trifluoromethyl)sulfonyl]methanesulfonamide (1:1), C8H11F6N3O4S2
Compound 2: methanol, CH4O
Compound 3: 2-methyl-2-propanol, C4H10O
Compound 4: 1-hexanol, C6H14O
Compound 5: chloroform, CHCl3
Compound 6: toluene, C7H8
Compound 7: 1,2-ethanediol, C2H6O2

System: ; phases: Liquid
Fixed: Temperature, K = 298
Fixed: Pressure, kPa = 101
Property: Molar enthalpy of solution, kJ/mol (Liquid); method: Calvet calorimetry
Mole fraction	Molar enthalpy of solution, kJ/mol	uncertainty
.005	5.603	
.0149	5.666	
.0245	5.524	
.034	5.474	
.0434	5.311	
.0525	5.269	
.0614	5.195	
.0702	5.076	
.0789	5.046	
.0873	4.972	
.0957	4.875	
.0144	5.37	
.0238	5.31	
.033	5.267	
.042	5.155	
.0509	5.045	
.0596	5	
.0681	4.93	
.0765	4.868	
.0848	4.789	
.0929	4.676	

System: ; phases: Liquid
Fixed: Temperature, K = 298
Fixed: Pressure, kPa = 101
Property: Molar enthalpy of solution, kJ/mol (Liquid); method: Calvet calorimetry
Mole fraction	Molar enthalpy of solution, kJ/mol	uncertainty
.0043	7.072	
.0128	6.754	
.0212	6.556	
.0295	6.348	
.0376	6.189	
.0455	5.993	
.0534	5.837	
.0611	5.693	
.0687	5.547	
.0762	5.485	
.0835	5.351	
.0042	6.822	
.0126	6.573	
.0209	6.394	
.029	6.235	
.037	6.061	
.0449	5.922	
.0526	5.784	
.0603	5.676	
.0677	5.546	
.0751	5.454	
.0824	5.335	

System: ; phases: Liquid
Fixed: Temperature, K = 298
Fixed: Pressure, kPa = 101
Property: Molar enthalpy of solution, kJ/mol (Liquid); method: Calvet calorimetry
Mole fraction	Molar enthalpy of solution, kJ/mol	uncertainty
.0012	8.748	
.0037	8.43	
.0061	7.92	
.0086	6.012	
.011	4.437	
.0134	3.775	
.0158	3.428	
.0182	4.248	
.0206	3.947	
.023	3.199	
.0253	3.207	

System: ; phases: Liquid
Fixed: Temperature, K = 298
Fixed: Pressure, kPa = 101
Property: Molar enthalpy of solution, kJ/mol (Liquid); method: Calvet calorimetry
Mole fraction	Molar enthalpy of solution, kJ/mol	uncertainty
.005	-3.209	
.015	-3.228	
.0248	-3.189	
.0343	-3.178	
.0437	-3.143	
.062	-3.113	
.0708	-3.055	
.0795	-2.996	
.0881	-3.032	
.0964	-2.988	

System: ; phases: Liquid
Fixed: Temperature, K = 298
Fixed: Pressure, kPa = 101
Property: Molar enthalpy of solution, kJ/mol (Liquid); method: Calvet calorimetry
Mole fraction	Molar enthalpy of solution, kJ/mol	uncertainty
.0037	-1.022	
.0112	-1.055	
.0185	-1.07	
.0257	-1.082	

System: ; phases: Liquid
Fixed: Temperature, K = 298
Fixed: Pressure, kPa = 101
Property: Molar enthalpy of solution, kJ/mol (Liquid); method: Calvet calorimetry
Mole fraction	Molar enthalpy of solution, kJ/mol	uncertainty
.0054	6.878	
.0159	3.973	
.0263	2.919	
.0365	2.452	
.0464	1.989	
.0562	1.896	
.0657	2.006	
.0751	1.657	
.0842	1.035	
.0932	1.443	
.102	1.416	
.0563	1.841	
.0659	1.37	
.0753	1.393	
.0845	1.305	
.0935	1.578	
.1023	1.23	
