Measured thermophysical data. Ionic Liquids/Water Distribution Ratios of Some Polycyclic Aromatic Hydrocarbons
Source: J. Chem. Eng. Data, 2004
Compound 1: naphthalene, C10H8
Compound 2: acenaphthene, C12H10
Compound 3: fluorene, C13H10
Compound 4: phenanthrene, C14H10
Compound 5: anthracene, C14H10
Compound 6: fluoranthene, C16H10
Compound 7: pyrene, C16H10
Compound 8: benz[a]anthracene, C18H12
Compound 9: chrysene, C18H12
Compound 10: benz[e]acephenanthrylene, C20H12
Compound 11: benzo[k]fluoranthene, C20H12
Compound 12: benzo[a]pyrene, C20H12
Compound 13: dibenz[a,h]anthracene, C22H14
Compound 14: benzo[ghi]perylene, C22H12
Compound 15: water, H2O
Compound 16: 1-N-butyl-3-methylimidazolium hexafluorophosphate, C8H15F6N2P
Compound 17: 1-octyl-3-methylimidazolium hexafluorophosphate, C12H23F6N2P
Compound 18: o-phenylenepyrene, C22H12

System: ; phases: Liquid mixture 1, Liquid mixture 2
Fixed: Pressure, kPa = 101.3
Fixed: Mole fraction = 0
Property: Mass concentration, kg/m3 (Liquid mixture 1); method: Chromatography
Temperature, K	Mass concentration, kg/m3	uncertainty
298.15	2188	324

System: ; phases: Liquid mixture 1, Liquid mixture 2
Fixed: Mole fraction = 0
Fixed: Pressure, kPa = 101.3
Property: Mass concentration, kg/m3 (Liquid mixture 1); method: Chromatography
Temperature, K	Mass concentration, kg/m3	uncertainty
298.1	5129	897

System: ; phases: Liquid mixture 1, Liquid mixture 2
Fixed: Pressure, kPa = 101.3
Fixed: Mole fraction = 0
Property: Mass concentration, kg/m3 (Liquid mixture 1); method: Chromatography
Temperature, K	Mass concentration, kg/m3	uncertainty
298.1	6607	2726

System: ; phases: Liquid mixture 1, Liquid mixture 2
Fixed: Pressure, kPa = 101.3
Fixed: Mole fraction = 0
Property: Mass concentration, kg/m3 (Liquid mixture 1); method: Chromatography
Temperature, K	Mass concentration, kg/m3	uncertainty
298.1	11482	3654

System: ; phases: Liquid mixture 1, Liquid mixture 2
Fixed: Pressure, kPa = 101.3
Fixed: Mole fraction = 0
Property: Mass concentration, kg/m3 (Liquid mixture 1); method: Chromatography
Temperature, K	Mass concentration, kg/m3	uncertainty
298.1	14125	3657

System: ; phases: Liquid mixture 1, Liquid mixture 2
Fixed: Pressure, kPa = 101.3
Fixed: Mole fraction = 0
Property: Mass concentration, kg/m3 (Liquid mixture 1); method: Chromatography
Temperature, K	Mass concentration, kg/m3	uncertainty
298.1	15849	5531

System: ; phases: Liquid mixture 1, Liquid mixture 2
Fixed: Pressure, kPa = 101.3
Fixed: Mole fraction = 0
Property: Mass concentration, kg/m3 (Liquid mixture 1); method: Chromatography
Temperature, K	Mass concentration, kg/m3	uncertainty
298.1	16218	4675

System: ; phases: Liquid mixture 1, Liquid mixture 2
Fixed: Pressure, kPa = 101.3
Fixed: Mole fraction = 0
Property: Mass concentration, kg/m3 (Liquid mixture 1); method: Chromatography
Temperature, K	Mass concentration, kg/m3	uncertainty
298.1	16596	6846

System: ; phases: Liquid mixture 1, Liquid mixture 2
Fixed: Pressure, kPa = 101.3
Fixed: Mole fraction = 0
Property: Mass concentration, kg/m3 (Liquid mixture 1); method: Chromatography
Temperature, K	Mass concentration, kg/m3	uncertainty
298.1	16596	6313

System: ; phases: Liquid mixture 1, Liquid mixture 2
Fixed: Pressure, kPa = 101.3
Fixed: Mole fraction = 0
Property: Mass concentration, kg/m3 (Liquid mixture 1); method: Chromatography
Temperature, K	Mass concentration, kg/m3	uncertainty
298.1	20417	9782

System: ; phases: Liquid mixture 1, Liquid mixture 2
Fixed: Pressure, kPa = 101.3
Fixed: Mole fraction = 0
Property: Mass concentration, kg/m3 (Liquid mixture 1); method: Chromatography
Temperature, K	Mass concentration, kg/m3	uncertainty
298.1	19953	11670

System: ; phases: Liquid mixture 1, Liquid mixture 2
Fixed: Pressure, kPa = 101.3
Fixed: Mole fraction = 0
Property: Mass concentration, kg/m3 (Liquid mixture 1); method: Chromatography
Temperature, K	Mass concentration, kg/m3	uncertainty
298.1	20893	10730

System: ; phases: Liquid mixture 1, Liquid mixture 2
Fixed: Pressure, kPa = 101.3
Fixed: Mole fraction = 0
Property: Mass concentration, kg/m3 (Liquid mixture 1); method: Chromatography
Temperature, K	Mass concentration, kg/m3	uncertainty
298.1	19953	12407

System: ; phases: Liquid mixture 1, Liquid mixture 2
Fixed: Pressure, kPa = 101.3
Fixed: Mole fraction = 0
Property: Mass concentration, kg/m3 (Liquid mixture 1); method: Chromatography
Temperature, K	Mass concentration, kg/m3	uncertainty
298.1	20417	13467

System: ; phases: Liquid mixture 1, Liquid mixture 2
Fixed: Pressure, kPa = 101.3
Fixed: Mole fraction = 0
Property: Mass concentration, kg/m3 (Liquid mixture 1); method: Chromatography
Temperature, K	Mass concentration, kg/m3	uncertainty
298.1	3236	566

System: ; phases: Liquid mixture 1, Liquid mixture 2
Fixed: Pressure, kPa = 101.3
Fixed: Mole fraction = 0
Property: Mass concentration, kg/m3 (Liquid mixture 1); method: Chromatography
Temperature, K	Mass concentration, kg/m3	uncertainty
298.1	7244	3227

System: ; phases: Liquid mixture 1, Liquid mixture 2
Fixed: Pressure, kPa = 101.3
Fixed: Mole fraction = 0
Property: Mass concentration, kg/m3 (Liquid mixture 1); method: Chromatography
Temperature, K	Mass concentration, kg/m3	uncertainty
298.1	9333	5122

System: ; phases: Liquid mixture 1, Liquid mixture 2
Fixed: Pressure, kPa = 101.3
Fixed: Mole fraction = 0
Property: Mass concentration, kg/m3 (Liquid mixture 1); method: Chromatography
Temperature, K	Mass concentration, kg/m3	uncertainty
298.1	13804	2414

System: ; phases: Liquid mixture 1, Liquid mixture 2
Fixed: Pressure, kPa = 101.3
Fixed: Mole fraction = 0
Property: Mass concentration, kg/m3 (Liquid mixture 1); method: Chromatography
Temperature, K	Mass concentration, kg/m3	uncertainty
298.1	13183	

System: ; phases: Liquid mixture 1, Liquid mixture 2
Fixed: Pressure, kPa = 101.3
Fixed: Mole fraction = 0
Property: Mass concentration, kg/m3 (Liquid mixture 1); method: Chromatography
Temperature, K	Mass concentration, kg/m3	uncertainty
298.1	16982	8136

System: ; phases: Liquid mixture 1, Liquid mixture 2
Fixed: Pressure, kPa = 101.3
Fixed: Mole fraction = 0
Property: Mass concentration, kg/m3 (Liquid mixture 1); method: Chromatography
Temperature, K	Mass concentration, kg/m3	uncertainty
298.1	16218	9486

System: ; phases: Liquid mixture 1, Liquid mixture 2
Fixed: Pressure, kPa = 101.3
Fixed: Mole fraction = 0
Property: Mass concentration, kg/m3 (Liquid mixture 1); method: Chromatography
Temperature, K	Mass concentration, kg/m3	uncertainty
298.1	14791	5626

System: ; phases: Liquid mixture 1, Liquid mixture 2
Fixed: Pressure, kPa = 101.3
Fixed: Mole fraction = 0
Property: Mass concentration, kg/m3 (Liquid mixture 1); method: Chromatography
Temperature, K	Mass concentration, kg/m3	uncertainty
298.1	16982	8722

System: ; phases: Liquid mixture 1, Liquid mixture 2
Fixed: Pressure, kPa = 101.3
Fixed: Mole fraction = 0
Property: Mass concentration, kg/m3 (Liquid mixture 1); method: Chromatography
Temperature, K	Mass concentration, kg/m3	uncertainty
298.1	18197	9345

System: ; phases: Liquid mixture 1, Liquid mixture 2
Fixed: Pressure, kPa = 101.3
Fixed: Mole fraction = 0
Property: Mass concentration, kg/m3 (Liquid mixture 1); method: Chromatography
Temperature, K	Mass concentration, kg/m3	uncertainty
298.1	16596	9108

System: ; phases: Liquid mixture 1, Liquid mixture 2
Fixed: Pressure, kPa = 101.3
Fixed: Mole fraction = 0
Property: Mass concentration, kg/m3 (Liquid mixture 1); method: Chromatography
Temperature, K	Mass concentration, kg/m3	uncertainty
298.1	20893	9307

System: ; phases: Liquid mixture 1, Liquid mixture 2
Fixed: Pressure, kPa = 101.3
Fixed: Mole fraction = 0
Property: Mass concentration, kg/m3 (Liquid mixture 1); method: Chromatography
Temperature, K	Mass concentration, kg/m3	uncertainty
298.1	16982	8722

System: ; phases: Liquid mixture 1, Liquid mixture 2
Fixed: Pressure, kPa = 101.3
Fixed: Mole fraction = 0
Property: Mass concentration, kg/m3 (Liquid mixture 1); method: Chromatography
Temperature, K	Mass concentration, kg/m3	uncertainty
298.1	19953	10247

System: ; phases: Liquid mixture 1, Liquid mixture 2
Fixed: Mole fraction = 0
Fixed: Pressure, kPa = 101.3
Property: Mass concentration, kg/m3 (Liquid mixture 1); method: Chromatography
Temperature, K	Mass concentration, kg/m3	uncertainty
298.1	22909	10976

System: ; phases: Liquid mixture 1, Liquid mixture 2
Fixed: Mole fraction = 0
Fixed: Pressure, kPa = 101.3
Property: Mass concentration, kg/m3 (Liquid mixture 1); method: Chromatography
Temperature, K	Mass concentration, kg/m3	uncertainty
298.1	20417	10486
