Measured thermophysical data. 
Source: 
Compound 1: benzaldehyde, C7H6O
Compound 2: 1-butyl-3-methylimidazolium tetrafluoroborate, C8H15BF4N2
Compound 3: 1H-imidazolium, 1-butyl-3-methyl-, nitrate, C8H15N3O3
Compound 4: 1-N-butyl-3-methylimidazolium hexafluorophosphate, C8H15F6N2P
Compound 5: 1-n-butyl-3-methylimidazolium chloride, C8H15ClN2
Compound 6: 1-n-butyl-3-methylimidazolium bromide, C8H15BrN2
Compound 7: 1H-imidazolium, 1-ethyl-3-methyl-, salt with 1,1,1-trifluoro-N-*(trifluoromethyl)sulfonyl]methanesulfonamide (1:1), C8H11F6N3O4S2, purity 99%
Compound 8: 2,3-dimethyl-1-ethylimidazolium bis(trifluoromethylsulfonyl)imide, C11H13F10N3O4S2, purity 99%
Compound 9: 2,3-dimethyl-1-n-propylimidazolium bis(trifluoromethylsulfonyl)imide, C10H15F6N3O4S2, purity 99%
Compound 10: 1-n-butyl-3-methylimidazolium bis(trifluoromethylsulfonyl)imide, C10H15F6N3O4S2
Compound 11: 1-hexyl-3-methyl-imidazolium bis(trifluoromethylsulfonyl)imide, C12H19F6N3O4S2
Compound 12: 1-hexyl-2,3-dimethylimidazolium bis(trifluoromethanesulfonyl)imide, C13H21F6N3O4S2
Compound 13: 1-octyl-3-methylimidazolium bis(trifluoromethylsulfonyl)imide, C14H23F6N3O4S2
Compound 14: water, H2O
Compound 15: 1-octanol, C8H18O

System: ; phases: Liquid mixture 1, Liquid mixture 2
Fixed: Pressure, kPa = 101
Fixed: Mole fraction = 0
Property: Amount concentration (molarity), mol/dm3 (Liquid mixture 1); method: Spectrophotometry
Temperature, K	Amount concentration (molarity), mol/dm3	uncertainty
297.15	.003	.00045

System: ; phases: Liquid mixture 1, Liquid mixture 2
Fixed: Pressure, kPa = 101
Fixed: Mole fraction = 0
Property: Amount concentration (molarity), mol/dm3 (Liquid mixture 1); method: Spectrophotometry
Temperature, K	Amount concentration (molarity), mol/dm3	uncertainty
297.15	.0038	.00057

System: ; phases: Liquid mixture 1, Liquid mixture 2
Fixed: Pressure, kPa = 101
Fixed: Mole fraction = 0
Property: Amount concentration (molarity), mol/dm3 (Liquid mixture 1); method: Spectrophotometry
Temperature, K	Amount concentration (molarity), mol/dm3	uncertainty
297.15	.022	.0033

System: ; phases: Liquid mixture 1, Liquid mixture 2
Fixed: Pressure, kPa = 101
Fixed: Mole fraction = 0
Property: Amount concentration (molarity), mol/dm3 (Liquid mixture 1); method: Spectrophotometry
Temperature, K	Amount concentration (molarity), mol/dm3	uncertainty
297.15	.004	.0006

System: ; phases: Liquid mixture 1, Liquid mixture 2
Fixed: Pressure, kPa = 101
Fixed: Mole fraction = 0
Property: Amount concentration (molarity), mol/dm3 (Liquid mixture 1); method: Spectrophotometry
Temperature, K	Amount concentration (molarity), mol/dm3	uncertainty
297.15	.0033	.000495

System: ; phases: Liquid mixture 1, Liquid mixture 2
Fixed: Pressure, kPa = 101
Property: Amount concentration (molarity), mol/dm3 (Liquid mixture 1); method: Spectrophotometry
Amount concentration (molarity), mol/dm3	Temperature, K	Amount concentration (molarity), mol/dm3	uncertainty
.00028	297.15	.09	.0135
.0028	297.15	.11	.0165

System: ; phases: Liquid mixture 1, Liquid mixture 2
Fixed: Pressure, kPa = 101
Property: Amount concentration (molarity), mol/dm3 (Liquid mixture 1); method: Spectrophotometry
Amount concentration (molarity), mol/dm3	Temperature, K	Amount concentration (molarity), mol/dm3	uncertainty
.00032	297.15	.07	.0105
.0029	297.15	.12	.018

System: ; phases: Liquid mixture 1, Liquid mixture 2
Fixed: Pressure, kPa = 101
Property: Amount concentration (molarity), mol/dm3 (Liquid mixture 1); method: Spectrophotometry
Amount concentration (molarity), mol/dm3	Temperature, K	Amount concentration (molarity), mol/dm3	uncertainty
.0014	297.15	.12	.018
.0028	297.15	.24	.036

System: ; phases: Liquid mixture 1, Liquid mixture 2
Fixed: Pressure, kPa = 101
Property: Amount concentration (molarity), mol/dm3 (Liquid mixture 1); method: Spectrophotometry
Amount concentration (molarity), mol/dm3	Temperature, K	Amount concentration (molarity), mol/dm3	uncertainty
.00015	297.15	.11	.0165
.0022	297.15	.62	.093

System: ; phases: Liquid mixture 1, Liquid mixture 2
Fixed: Pressure, kPa = 101
Property: Amount concentration (molarity), mol/dm3 (Liquid mixture 1); method: Spectrophotometry
Amount concentration (molarity), mol/dm3	Temperature, K	Amount concentration (molarity), mol/dm3	uncertainty
.00032	297.15	1.42	.213
.00038	297.15	1.66	.249

System: ; phases: Liquid mixture 1, Liquid mixture 2
Fixed: Pressure, kPa = 101
Property: Amount concentration (molarity), mol/dm3 (Liquid mixture 1); method: Spectrophotometry
Amount concentration (molarity), mol/dm3	Temperature, K	Amount concentration (molarity), mol/dm3	uncertainty
.00036	297.15	1.35	.2025
.00049	297.15	1.79	.2685

System: ; phases: Liquid mixture 1, Liquid mixture 2
Fixed: Pressure, kPa = 101
Property: Amount concentration (molarity), mol/dm3 (Liquid mixture 1); method: Spectrophotometry
Amount concentration (molarity), mol/dm3	Temperature, K	Amount concentration (molarity), mol/dm3	uncertainty
.000099	297.15	6.3	.945
.00021	297.15	11.1	1.665

System: ; phases: Liquid mixture 1, Liquid mixture 2
Fixed: Pressure, kPa = 101
Fixed: Mole fraction = 0
Property: Amount concentration (molarity), mol/dm3 (Liquid mixture 1); method: Spectrophotometry
Temperature, K	Amount concentration (molarity), mol/dm3	uncertainty
297.15	36.5	3.65
297.15	29.6	2.96
