Measured thermophysical data. Enthalpies of dilution of glycine, l-alanine and l-serine in aqueous potassium chloride solutions
Source: Thermochim. Acta, 2005
Compound 1: glycine, C2H5NO2
Compound 2: L-alanine, C3H7NO2
Compound 3: L-serine, C3H7NO3
Compound 4: water, H2O
Compound 5: potassium chloride, ClK

System: ; phases: Liquid
Fixed: Temperature, K = 298.15
Fixed: Pressure, kPa = 101.3
Property: Enthalpy of dilution, kJ/mol (Liquid); method: Flow calorimetry
Solvent: MolaLity, mol/kg	Initial molaLity of solute, mol/kg	Final molaLity of solute, mol/kg	Enthalpy of dilution, kJ/mol	uncertainty
0	.1053	.0521	.02328	.0002
0	.1439	.0708	.03232	.0002
0	.1786	.0881	.03897	.0002
0	.2081	.1026	.04518	.0002
0	.233	.1147	.05004	.0002
0	.2461	.1212	.05199	.0002
0	.2723	.1337	.0584	.0002
0	.2898	.1425	.06135	.0002
0	.3046	.1492	.06347	.0002
0	.3319	.163	.06921	.0002
0	.3555	.1745	.07389	.0002
0	.4206	.2062	.08503	.0002
.2001	.2305	.1148	.04596	.0002
.2001	.2673	.1332	.05101	.0002
.2001	.2988	.1484	.05906	.0002
.2001	.3302	.1635	.06463	.0002
.2001	.372	.1848	.07146	.0002
.2001	.4081	.2025	.07772	.0002
.2001	.4747	.2358	.0885	.0002
.2001	.5294	.2615	.09809	.0002
.2001	.5757	.2834	.10467	.0002
.2001	.6689	.3294	.11852	.0002
.2001	.7133	.3507	.12498	.0002
.2001	.7607	.3743	.13131	.0002
.2001	.8379	.4122	.14035	.0002
.3796	.2574	.1265	.04738	.0002
.3796	.3198	.1565	.05787	.0002
.3796	.3571	.1748	.06405	.0002
.3796	.4107	.2009	.07238	.0002
.3796	.4587	.224	.07988	.0002
.3796	.5071	.2474	.08701	.0002
.3796	.5537	.2696	.0939	.0002
.3796	.5904	.2873	.09927	.0002
.3796	.6576	.3194	.10868	.0002
.3796	.7055	.3422	.11495	.0002
.3796	.7449	.3606	.12098	.0002
.3796	.8016	.3885	.12725	.0002
.3796	.8912	.431	.13846	.0002
.6107	.2345	.1131	.03909	.0002
.6107	.2718	.131	.04442	.0002
.6107	.3157	.1519	.05081	.0002
.6107	.3716	.1784	.0591	.0002
.6107	.4358	.2092	.06819	.0002
.6107	.4916	.2354	.07573	.0002
.6107	.5611	.2683	.0849	.0002
.6107	.6104	.2921	.09059	.0002
.6107	.6612	.3148	.09822	.0002
.6107	.6979	.3331	.10237	.0002
.6107	.7445	.3554	.10696	.0002
.6107	.7986	.3804	.11367	.0002
.6107	.8902	.423	.12412	.0002
.8445	.1784	.0834	.02657	.0002
.8445	.2319	.1079	.0349	.0002
.8445	.287	.1334	.0429	.0002
.8445	.3471	.1624	.05054	.0002
.8445	.4096	.1911	.05898	.0002
.8445	.4749	.2191	.06845	.0002
.8445	.5312	.2456	.07505	.0002
.8445	.5957	.2769	.08178	.0002
.8445	.6602	.3034	.09085	.0002
.8445	.7221	.3284	.09934	.0002
.8445	.7856	.3611	.10404	.0002
.8445	.8557	.394	.11069	.0002
.8445	.9085	.4183	.11608	.0002
1.0107	.1809	.086	.02544	.0002
1.0107	.2397	.1129	.03367	.0002
1.0107	.2974	.1398	.0413	.0002
1.0107	.356	.1672	.04843	.0002
1.0107	.4145	.1947	.05589	.0002
1.0107	.4672	.2197	.06144	.0002
1.0107	.5279	.2482	.06832	.0002
1.0107	.5935	.2775	.07604	.0002
1.0107	.6554	.3075	.08162	.0002
1.0107	.7197	.3355	.08951	.0002
1.0107	.782	.3631	.09599	.0002
1.0107	.8485	.3973	.10137	.0002
1.0107	.9018	.4202	.10628	.0002
1.3855	.1862	.0893	.02176	.0002
1.3855	.2282	.1078	.02713	.0002
1.3855	.2825	.1341	.03283	.0002
1.3855	.3426	.1625	.03906	.0002
1.3855	.4035	.1908	.04562	.0002
1.3855	.4626	.2186	.05143	.0002
1.3855	.5291	.2498	.05765	.0002
1.3855	.5941	.2802	.06349	.0002
1.3855	.6634	.3123	.06948	.0002
1.3855	.7286	.345	.07381	.0002
1.3855	.7886	.3682	.08061	.0002
1.3855	.8622	.404	.08561	.0002
1.3855	.9125	.4264	.08981	.0002

System: ; phases: Liquid
Fixed: Temperature, K = 298.15
Fixed: Pressure, kPa = 101.3
Property: Enthalpy of dilution, kJ/mol (Liquid); method: Flow calorimetry
Solvent: MolaLity, mol/kg	Initial molaLity of solute, mol/kg	Final molaLity of solute, mol/kg	Enthalpy of dilution, kJ/mol	uncertainty
0	.144	.0688	-.01546	.0002
0	.2177	.1044	-.02377	.0002
0	.2731	.1306	-.03012	.0002
0	.3523	.168	-.03921	.0002
0	.3979	.1897	-.04379	.0002
0	.4633	.2204	-.05149	.0002
0	.55	.2608	-.06156	.0002
0	.5729	.2716	-.06415	.0002
0	.6342	.2999	-.07115	.0002
0	.6609	.3121	-.07477	.0002
0	.6975	.3297	-.07797	.0002
0	.7481	.3524	-.08415	.0002
.2022	.1649	.0779	-.01915	.0002
.2022	.2091	.0988	-.02386	.0002
.2022	.267	.1259	-.03104	.0002
.2022	.3196	.1502	-.03782	.0002
.2022	.3753	.1762	-.04405	.0002
.2022	.4307	.2018	-.05059	.0002
.2022	.4802	.2242	-.05672	.0002
.2022	.5373	.251	-.06415	.0002
.2022	.5943	.277	-.0699	.0002
.2022	.6496	.3026	-.07651	.0002
.2022	.6977	.3233	-.08247	.0002
.2022	.7573	.351	-.08965	.0002
.2022	.8043	.3723	-.09551	.0002
.3062	.1648	.0783	-.01843	.0002
.3062	.2287	.1085	-.02598	.0002
.3062	.2713	.1283	-.03117	.0002
.3062	.2921	.1381	-.03396	.0002
.3062	.3655	.172	-.04257	.0002
.3062	.4462	.2096	-.05172	.0002
.3062	.4996	.2346	-.05803	.0002
.3062	.5344	.2507	-.06234	.0002
.3062	.5397	.2531	-.06294	.0002
.3062	.6377	.298	-.07413	.0002
.3062	.697	.3251	-.08102	.0002
.3062	.7394	.345	-.08634	.0002
.3062	.8009	.3725	-.09369	.0002
.4027	.147	.0699	-.01772	.0002
.4027	.2154	.1023	-.02565	.0002
.4027	.2932	.1387	-.03552	.0002
.4027	.3535	.1665	-.04249	.0002
.4027	.4093	.1897	-.0507	.0002
.4027	.4631	.2181	-.0561	.0002
.4027	.5209	.2449	-.06227	.0002
.4027	.584	.2736	-.07064	.0002
.4027	.6255	.2924	-.07552	.0002
.4027	.6932	.3236	-.0834	.0002
.4027	.7427	.3463	-.08952	.0002
.4027	.7436	.3469	-.08935	.0002
.4027	.8116	.3782	-.0972	.0002
.5247	.1562	.0746	-.01866	.0002
.5247	.2167	.1036	-.02597	.0002
.5247	.2594	.1244	-.03078	.0002
.5247	.312	.1486	-.0377	.0002
.5247	.3645	.1733	-.04412	.0002
.5247	.421	.2	-.05109	.0002
.5247	.4708	.2232	-.0577	.0002
.5247	.5319	.2514	-.06484	.0002
.5247	.5865	.2763	-.07165	.0002
.5247	.647	.3049	-.07867	.0002
.5247	.7026	.3308	-.08555	.0002
.5247	.7357	.3456	-.08985	.0002
.5247	.8079	.3769	-.09939	.0002
.8578	.1438	.0695	-.01818	.0002
.8578	.2076	.1005	-.02623	.0002
.8578	.2567	.1236	-.03325	.0002
.8578	.3054	.147	-.03967	.0002
.8578	.3661	.1764	-.04754	.0002
.8578	.4109	.1976	-.05273	.0002
.8578	.5191	.2481	-.06755	.0002
.8578	.5766	.2758	-.07514	.0002
.8578	.6345	.3029	-.08305	.0002
.8578	.695	.3299	-.09109	.0002
.8578	.7511	.3559	-.09843	.0002
.8578	.8029	.3811	-.10483	.0002
.9987	.4687	.2251	-.06088	.0002
.9987	.1487	.0701	-.02008	.0002
.9987	.2015	.0955	-.02646	.0002
.9987	.2558	.1205	-.0349	.0002
.9987	.3088	.1446	-.04213	.0002
.9987	.358	.1678	-.04892	.0002
.9987	.416	.1951	-.05693	.0002
.9987	.4668	.2201	-.06323	.0002
.9987	.5204	.2424	-.07122	.0002
.9987	.5794	.271	-.07864	.0002
.9987	.6308	.2938	-.08588	.0002
.9987	.7817	.3623	-.10693	.0002
.9987	.8416	.3906	-.11377	.0002
.9987	.9009	.4172	-.12147	.0002

System: ; phases: Liquid
Fixed: Temperature, K = 298.15
Fixed: Pressure, kPa = 101.3
Property: Enthalpy of dilution, kJ/mol (Liquid); method: Flow calorimetry
Solvent: MolaLity, mol/kg	Initial molaLity of solute, mol/kg	Final molaLity of solute, mol/kg	Enthalpy of dilution, kJ/mol	uncertainty
0	.0791	.0388	.02774	.0002
0	.1119	.0549	.03854	.0002
0	.1427	.0699	.04842	.0002
0	.1672	.0819	.05632	.0002
0	.1967	.0963	.06567	.0002
0	.2222	.1086	.07381	.0002
0	.2769	.1352	.09001	.0002
0	.3039	.1481	.09803	.0002
0	.332	.1619	.1058	.0002
0	.3606	.1754	.11415	.0002
0	.3835	.1867	.12002	.0002
0	.4123	.2001	.12875	.0002
.3149	.0851	.044	.02503	.0002
.3149	.1073	.0556	.03114	.0002
.3149	.1347	.0689	.04031	.0002
.3149	.1618	.0837	.04651	.0002
.3149	.1882	.0973	.053831	.0002
.3149	.2153	.1111	.06105	.0002
.3149	.2432	.1254	.06806	.0002
.3149	.2653	.137	.07353	.0002
.3149	.2898	.1496	.07946	.0002
.3149	.3133	.1617	.08529	.0002
.3149	.3459	.1784	.09397	.0002
.3149	.3728	.1922	.09975	.0002
.3149	.3985	.2057	.10485	.0002
.404	.084	.0451	.02302	.0002
.404	.1104	.0592	.03008	.0002
.404	.1398	.0749	.03737	.0002
.404	.1671	.0896	.04434	.0002
.404	.1922	.1029	.05054	.0002
.404	.2205	.118	.05728	.0002
.404	.2483	.1327	.06418	.0002
.404	.2736	.146	.06995	.0002
.404	.2994	.1597	.07609	.0002
.404	.3251	.1722	.08236	.0002
.404	.3513	.1871	.08719	.0002
.404	.3769	.2003	.09326	.0002
.404	.3983	.2118	.09751	.0002
.5019	.0833	.0424	.02263	.0002
.5019	.1086	.0553	.02909	.0002
.5019	.137	.0699	.03682	.0002
.5019	.1663	.0848	.04372	.0002
.5019	.1957	.099	.05182	.0002
.5019	.2199	.1115	.05701	.0002
.5019	.2402	.1214	.06223	.0002
.5019	.2632	.1329	.0677	.0002
.5019	.2878	.1452	.07344	.0002
.5019	.3085	.1554	.07832	.0002
.5019	.3396	.172	.08398	.0002
.5019	.3684	.1864	.09005	.0002
.5019	.396	.2002	.09608	.0002
.7045	.0813	.0422	.01924	.0002
.7045	.1099	.0572	.0259	.0002
.7045	.1299	.0676	.03057	.0002
.7045	.1542	.0802	.03616	.0002
.7045	.1834	.0954	.0427	.0002
.7045	.2093	.1086	.04836	.0002
.7045	.2349	.1218	.0539	.0002
.7045	.2654	.1374	.0603	.0002
.7045	.2947	.1524	.06661	.0002
.7045	.3175	.1644	.07068	.0002
.7045	.3458	.1786	.07673	.0002
.7045	.3728	.1926	.08283	.0002
.7045	.3969	.2051	.08602	.0002
.8524	.0822	.0427	.01881	.0002
.8524	.1054	.0546	.02402	.0002
.8524	.1304	.0677	.02936	.0002
.8524	.1558	.0809	.03471	.0002
.8524	.1879	.0974	.0414	.0002
.8524	.2144	.111	.04689	.0002
.8524	.266	.1375	.0573	.0002
.8524	.2937	.1514	.06314	.0002
.8524	.3227	.1667	.06801	.0002
.8524	.3502	.1802	.0744	.0002
.8524	.3758	.1933	.07847	.0002
.8524	.4018	.2068	.08252	.0002
1.022	.2388	.1236	.0517	.0002
1.022	.0854	.0452	.0166	.0002
1.022	.1087	.0575	.02101	.0002
1.022	.1346	.071	.02639	.0002
1.022	.1573	.0832	.03075	.0002
1.022	.1883	.0993	.03639	.0002
1.022	.2124	.112	.04107	.0002
1.022	.2404	.1268	.04647	.0002
1.022	.2616	.1377	.05048	.0002
1.022	.2909	.1531	.05541	.0002
1.022	.318	.166	.0613	.0002
1.022	.3473	.1825	.06541	.0002
1.022	.3734	.1956	.06939	.0002
1.022	.3977	.2084	.07342	.0002

System: ; phases: Liquid
Fixed: Pressure, kPa = 101.3
Property: Enthalpy of dilution, kJ/mol (Liquid); method: Flow calorimetry
Initial molaLity of solute, mol/kg	Final molaLity of solute, mol/kg	Temperature, K	Enthalpy of dilution, kJ/mol	uncertainty
.1053	.0521	298.15	.02328	.0002
.1439	.0708	298.15	.03232	.0002
.1786	.0881	298.15	.03897	.0002
.2081	.1026	298.15	.04518	.0002
.233	.1147	298.15	.05004	.0002
.2461	.1212	298.15	.05199	.0002
.2723	.1337	298.15	.0584	.0002
.2898	.1425	298.15	.06135	.0002
.3046	.1492	298.15	.06347	.0002
.3319	.163	298.15	.06921	.0002
.3555	.1745	298.15	.07389	.0002
.4206	.2062	298.15	.08503	.0002

System: ; phases: Liquid
Fixed: Pressure, kPa = 101.3
Property: Enthalpy of dilution, kJ/mol (Liquid); method: Flow calorimetry
Initial molaLity of solute, mol/kg	Final molaLity of solute, mol/kg	Temperature, K	Enthalpy of dilution, kJ/mol	uncertainty
.144	.0688	298.15	-.01546	.0002
.2177	.1044	298.15	-.02377	.0002
.2731	.1306	298.15	-.03012	.0002
.3523	.168	298.15	-.03921	.0002
.3979	.1897	298.15	-.04379	.0002
.4633	.2204	298.15	-.05149	.0002
.55	.2608	298.15	-.06156	.0002
.5729	.2716	298.15	-.06415	.0002
.6342	.2999	298.15	-.07115	.0002
.6609	.3121	298.15	-.07477	.0002
.6975	.3297	298.15	-.07797	.0002
.7481	.3524	298.15	-.08415	.0002

System: ; phases: Liquid
Fixed: Pressure, kPa = 101.3
Property: Enthalpy of dilution, kJ/mol (Liquid); method: Flow calorimetry
Initial molaLity of solute, mol/kg	Final molaLity of solute, mol/kg	Temperature, K	Enthalpy of dilution, kJ/mol	uncertainty
.0791	.0388	298.15	.02774	.0002
.1119	.0549	298.15	.03854	.0002
.1427	.0699	298.15	.04842	.0002
.1672	.0819	298.15	.05632	.0002
.1967	.0963	298.15	.06567	.0002
.2222	.1086	298.15	.07381	.0002
.2769	.1352	298.15	.09001	.0002
.3039	.1481	298.15	.09803	.0002
.332	.1619	298.15	.1058	.0002
.3606	.1754	298.15	.11415	.0002
.3835	.1867	298.15	.12002	.0002
.4123	.2001	298.15	.12875	.0002
