Measured thermophysical data. Thermodynamic properties of liquid germanium yttrium alloys
Source: Thermochim. Acta, 2005
Compound 1: germanium, Ge
Compound 2: yttrium, Y

System: ; phases: Liquid
Fixed: Temperature, K = 1770
Fixed: Pressure, kPa = 101
Property: Partial molar enthalpy, kJ/mol (Liquid); method: Drop calorimetry
Mole fraction	Partial molar enthalpy, kJ/mol	uncertainty
.0017	-240.68	10
.0056	-251.37	10
.0104	-222.69	10
.0158	-244.62	10
.0216	-245.74	10
.0278	-237.89	10
.0344	-245.55	10
.0413	-237.52	10
.0485	-228.55	10
.0561	-226.31	10
.0639	-228.88	10
.072	-240.46	10
.0807	-243.14	10
.0899	-237.66	10
.0993	-225.95	10
.1086	-256.29	10
.1179	-232.01	10
.1272	-239.05	10
.1367	-243.23	10
.147	-240.54	10
.1581	-240.44	10
.1694	-254.77	10
.1807	-259.66	10
.1922	-241.93	10
.2037	-245.29	10
.2151	-241.67	10
.226	-243.6	10
.2375	-244.69	10
.2496	-252.2	10
.2622	-244.05	10
.2756	-234.77	10
.2899	-249.53	10
.3048	-252.97	10
.3229	-255.01	10
.3459	-247.51	10
