Measured thermophysical data. 
Source: 
Compound 1: 1H-imidazolium, 1-ethyl-3-methyl-, salt with 1,1,1-trifluoro-N-*(trifluoromethyl)sulfonyl]methanesulfonamide (1:1), C8H11F6N3O4S2
Compound 2: 1-n-butyl-3-methylimidazolium bis(trifluoromethylsulfonyl)imide, C10H15F6N3O4S2
Compound 3: 1-N-butyl-3-methylimidazolium hexafluorophosphate, C8H15F6N2P
Compound 4: 1-hexyl-3-methylimidazolium bis(trifluoromethylsulfonyl)imide, C12H19F6N3O4S2
Compound 5: water, H2O

System: ; phases: Liquid
Fixed: Pressure, kPa = 101.325
Property: Electrical conductivity, S/m (Liquid); method: Alternating current cell with electrodes
Temperature, K	Electrical conductivity, S/m	uncertainty
288.15	.644	.02
293.15	.773	.02
298.15	.912	.02
308.15	1.229	.02
323.15	1.789	.02

System: ; phases: Liquid
Fixed: Pressure, kPa = 101.325
Property: Electrical conductivity, S/m (Liquid); method: Alternating current cell with electrodes
Temperature, K	Electrical conductivity, S/m	uncertainty
288.15	.265	.02
293.15	.331	.02
298.15	.406	.02
308.15	.585	.02
323.15	.924	.02

System: ; phases: Liquid
Fixed: Pressure, kPa = 101.325
Property: Electrical conductivity, S/m (Liquid); method: Alternating current cell with electrodes
Temperature, K	Electrical conductivity, S/m	uncertainty
288.15	.079	.02
293.15	.109	.02
298.15	.146	.02
308.15	.247	.02
323.15	.477	.02

System: ; phases: Liquid
Fixed: Pressure, kPa = 101.325
Property: Electrical conductivity, S/m (Liquid); method: Alternating current cell with electrodes
Temperature, K	Electrical conductivity, S/m	uncertainty
288.15	.135	.02
293.15	.173	.02
298.15	.218	.02
308.15	.327	.02
323.15	.546	.02

System: ; phases: Liquid
Fixed: Pressure, kPa = 100
Property: Electrical conductivity, S/m (Liquid); method: Alternating current cell with electrodes
Mass fraction	Temperature, K	Electrical conductivity, S/m	uncertainty
.00001	288.15	.265	.02
.00001	293.15	.331	.02
.00001	298.15	.406	.02
.00008	288.15	.266	.02
.00008	293.15	.332	.02
.00008	298.15	.408	.02
.00102	288.15	.277	.02
.00102	293.15	.345	.02
.00102	298.15	.422	.02
.00885	288.15	.365	.02
.00885	293.15	.449	.02
.00885	298.15	.542	.02
