Measured thermophysical data. Calorimetric study of enthalpies of mixing in liquid gallium germanium yttrium alloys
Source: Thermochim. Acta, 2005
Compound 1: gallium, Ga
Compound 2: germanium, Ge
Compound 3: yttrium, Y

System: ; phases: Liquid
Fixed: Temperature, K = 1760
Fixed: Pressure, kPa = 101
Property: Partial molar enthalpy, kJ/mol (Liquid); method: Drop calorimetry
Mole fraction	Partial molar enthalpy, kJ/mol	uncertainty
.0193	4.78	5
.0653	-9.36	5
.1216	11.44	5
.0235	-10.64	5
.0688	1.64	5
.1213	-4.98	5
.0841	-6.68	5
.2192	-.36	5
.3243	-.43	5
.3844	-3.77	5
.0229	-5.76	5
.0792	-2.4	5
.1444	-4.55	5
.2207	3.55	5
.301	-6.07	5
.3699	-7.53	5
.0909	-2.6	5
.2426	-2.07	5
.3582	-6.5	5
.4559	1.34	5
.0784	-8.12	5
.2357	-1.86	5
.3736	-4.14	5
.4661	-.11	5
.1049	-17.07	5
.2858	-11.19	5
.422	-.5	5
.5255	-5.36	5
.6118	-1.47	5
.6756	2.44	5
.1436	-3.06	5
.33	6.84	5
.4558	5.42	5
.5498	16.74	5
.6195	-6.62	5
.676	5.75	5
.1619	7.78	5
.4047	1.81	5
.566	6.21	5
.6613	-.47	5
.7162	.98	5
.7583	6.28	5
.7932	-2.81	5
.8207	3.49	5
.8419	5.16	5

System: ; phases: Liquid
Fixed: Temperature, K = 1760
Fixed: Pressure, kPa = 101
Property: Partial molar enthalpy, kJ/mol (Liquid); method: Drop calorimetry
Solvent: Mole fraction	Mole fraction	Partial molar enthalpy, kJ/mol	uncertainty
.15	.0012	-231.86	5
.15	.0044	-276.47	5
.15	.0082	-254.99	5
.15	.0121	-264.92	5
.15	.0161	-244.67	5
.15	.0204	-237.1	5
.15	.0249	-231.02	5
.15	.0294	-253.78	5
.15	.0341	-238.43	5
.15	.039	-227.91	5
.15	.0444	-257.77	5
.15	.0503	-261.19	5
.15	.0567	-262.81	5
.15	.0634	-254.64	5
.15	.0708	-268.01	5
.15	.0793	-235.77	5
.15	.0883	-264.07	5
.15	.0976	-241.69	5
.15	.107	-252.75	5
.15	.1176	-240.46	5
.15	.1295	-254.54	5
.15	.1433	-246.02	5
.15	.1586	-260.1	5
.15	.1741	-237.23	5
.15	.1881	-267.72	5
.15	.2017	-279.94	5
.15	.2168	-277.29	5
.15	.233	-253.88	5
.15	.2492	-253.6	5
.15	.2651	-250.54	5
.15	.2809	-253.14	5
.15	.2967	-253.97	5
.15	.3123	-289.27	5
.15	.3273	-236.4	5
.15	.0027	-267.84	5
.15	.0088	-253.51	5
.15	.0163	-235.26	5
.15	.0245	-221.71	5
.15	.0328	-264.52	5
.15	.0414	-222.73	5
.15	.0513	-250.44	5
.15	.0623	-269.59	5
.15	.0744	-215.85	5
.15	.0872	-248.87	5
.15	.0997	-212.31	5
.15	.1118	-228.65	5
.15	.1251	-229.01	5
.15	.1394	-231.39	5
.15	.1536	-226.82	5
.15	.1677	-228.53	5
.15	.1826	-238	5
.15	.1978	-226.16	5
.15	.2129	-236.58	5
.15	.2281	-238.87	5
.15	.2433	-237.05	5
.15	.2588	-233.81	5
.15	.2748	-237.17	5
.15	.2912	-247.39	5
.15	.3078	-222.24	5
.15	.3399	-242.53	5
.15	.3554	-211.36	5
.15	.3707	-222.43	5
.15	.3854	-229.87	5
.15	.3994	-152.05	5
.15	.4133	-164.88	5
.4	.0025	-213.13	5
.4	.0076	-224.35	5
.4	.0134	-204.62	5
.4	.0202	-228.89	5
.4	.0272	-230.65	5
.4	.0354	-221.49	5
.4	.0456	-228.03	5
.4	.056	-237.88	5
.4	.067	-243.72	5
.4	.0802	-237.67	5
.4	.095	-242.15	5
.4	.11	-230.37	5
.4	.1244	-247.14	5
.4	.1399	-251.73	5
.4	.1557	-257.42	5
.4	.1713	-250.88	5
.4	.187	-247.79	5
.4	.2034	-241.68	5
.4	.2199	-234.69	5
.4	.2364	-237.17	5
.4	.2532	-228.45	5
.4	.27	-223.39	5
.4	.2868	-219.02	5
.4	.3035	-226.63	5
.4	.3199	-208.88	5
.4	.3357	-224.83	5
.5	.0034	-205.16	5
.5	.0102	-199.49	5
.5	.017	-224.27	5
.5	.024	-223.17	5
.5	.0312	-204.64	5
.5	.0385	-236.24	5
.5	.0461	-225.69	5
.5	.0541	-218.63	5
.5	.0632	-225.86	5
.5	.0736	-232.29	5
.5	.0851	-249.63	5
.5	.0981	-236.09	5
.5	.1118	-242.9	5
.5	.1255	-228.1	5
.5	.1389	-238.27	5
.5	.1529	-242.3	5
.5	.1675	-240.61	5
.5	.0019	-195.36	5
.5	.0068	-229.51	5
.5	.0129	-212.56	5
.5	.0195	-220.88	5
.5	.0271	-206.48	5
.5	.036	-220.84	5
.5	.0453	-240.1	5
.5	.0549	-227.6	5
.5	.0649	-234.26	5
.5	.0761	-229.93	5
.5	.0882	-235.06	5
.5	.101	-233.24	5
.5	.1152	-238.21	5
.5	.13	-242.52	5
.5	.1447	-234.44	5
.5	.1591	-235.32	5
.5	.1736	-222.62	5
.5	.1956	-223.59	5
.5	.2171	-230.44	5
.5	.2315	-230.51	5
.5	.2464	-228.61	5
.5	.2615	-223.23	5
.5	.2762	-211.48	5
.5	.2908	-196.63	5
.5	.3048	-186.95	5
.5	.3184	-206.27	5
.5	.3317	-187.57	5
.5	.3447	-197.6	5
.5	.3575	-177.31	5
.7	.003	-212.35	5
.7	.0091	-218.51	5
.7	.0156	-220.14	5
.7	.0221	-219.56	5
.7	.0287	-214.29	5
.7	.0354	-219.98	5
.7	.0422	-213.38	5
.7	.0502	-220.49	5
.7	.0593	-229.52	5
.7	.0687	-225.18	5
.7	.0022	-188.16	5
.7	.007	-196.14	5
.7	.0151	-213.79	5
.7	.0235	-216.86	5
.7	.0307	-205.89	5
.7	.039	-210.31	5
.7	.0477	-220.22	5
.7	.0566	-210.58	5
.7	.0658	-217.41	5
.7	.0756	-214.86	5
.7	.0859	-216.54	5
.7	.0962	-217.31	5
.7	.1065	-206.81	5
.7	.1168	-222.04	5
.7	.1273	-225.96	5
.7	.1379	-219	5
.7	.1485	-223.28	5
.7	.1603	-215.09	5
.7	.173	-211.77	5
.7	.1859	-219.76	5
.7	.1991	-216.61	5
.7	.2126	-205.59	5
.7	.2263	-217.81	5
.7	.246	-187.72	5
.7	.265	-195.32	5
.7	.2776	-204.52	5
.7	.2901	-161.24	5
.7	.3024	-166.25	5
.7	.3146	-197.67	5
.7	.3269	-185.46	5
.7	.3394	-162.19	5
.85	.0021	-186.96	5
.85	.0064	-207.32	5
.85	.0111	-188.9	5
.85	.0165	-204.37	5
.85	.0227	-177.64	5
.85	.0294	-195.15	5
.85	.0362	-210.55	5
.85	.0434	-205.55	5
.85	.0516	-202.32	5
.85	.0603	-210.09	5
.85	.0697	-203.86	5
.85	.0799	-213.49	5
.85	.0903	-200	5
.85	.1017	-206.12	5
.85	.1105	-209.27	5
.85	.1196	-208.95	5
.85	.1322	-192.82	5
.85	.1447	-207.9	5
.85	.1573	-204.78	5
.85	.1701	-220.43	5
.85	.1834	-205.68	5
.85	.1978	-195.67	5
.85	.2125	-195.9	5
.85	.227	-196.18	5
.85	.2416	-186.01	5
.85	.2569	-175.19	5
.85	.2729	-181.01	5
.85	.2888	-187.43	5
.85	.3043	-172.4	5
.85	.3192	-148.46	5
.85	.3337	-145.97	5
.85	.3479	-138.77	5
.85	.3619	-138.47	5
.85	.3754	-115.22	5
.85	.3885	-111.79	5
