Measured thermophysical data. Experimental and computational study on the thermochemistry of ethylpiperidines
Source: J. Chem. Thermodyn., 2006
Compound 1: N-ethylpiperidine, C7H15N
Compound 2: 2-ethylpiperidine, C7H15N
Compound 3: carbon dioxide, CO2
Compound 4: nitrogen, N2
Compound 5: water, H2O
Compound 6: oxygen, O2

System: ; phases: Gas
Property: Molar enthalpy, kJ/mol (Gas); method: Calvet microcalorimetry
Temperature, K	Pressure, kPa	Molar enthalpy, kJ/mol	uncertainty
334.3	100	45.01	

System: ; phases: Gas
Property: Molar enthalpy, kJ/mol (Gas); method: Calvet microcalorimetry
Temperature, K	Pressure, kPa	Molar enthalpy, kJ/mol	uncertainty
334.3	100	54.39	

Reaction: -1  + 7  + 0.5  + 7.5  + -10.75 
Property: Specific internal energy of reaction at constant volume, J/g
-42125.8

Reaction: -1  + 7  + 0.5  + 7.5  + -10.75 
Property: Specific internal energy of reaction at constant volume, J/g
-41803.2
