Measured thermophysical data. 
Source: 
Compound 1: p-bromochlorobenzene, C6H4BrCl, purity 99.9%

System: ; phases: Liquid, Gas
Property: Vapor or sublimation pressure, kPa (Liquid); method: Other
Temperature, K	Vapor or sublimation pressure, kPa	uncertainty
305.15	.133322	
332.65	.66661	
345.85	1.33322	
360.95	2.66644	
376.95	5.33288	
387.95	7.99932	
401.15	13.3322	
422.65	26.6644	
445.75	53.3288	
470.05	101.32472	

System: ; phases: Liquid, Gas
Property: Critical temperature, K (Liquid); method: Visual observation in a stirred cell
Critical temperature, K	uncertainty
333	
