Measured thermophysical data. Standard molar enthalpies of formation of 2-chloroquinoline, 4-chloroquinoline, 6-chloroquinoline and 4,7-dichloroquinoline by rotating-bomb calorimetry
Source: J. Chem. Thermodyn., 2006
Compound 1: 2-chloroquinoline, C9H6ClN, purity 99%
Compound 2: 4-chloroquinoline, C9H6ClN, purity 99%
Compound 3: 6-chloroquinoline, C9H6ClN, purity 99%
Compound 4: 4,7-dichloroquinoline, C9H5Cl2N, purity 99%
Compound 5: hydrogen chloride, ClH
Compound 6: carbon dioxide, CO2
Compound 7: nitrogen, N2
Compound 8: water, H2O
Compound 9: oxygen, O2

System: ; phases: Crystal, Liquid, Air at 1 atmosphere
Property: Normal melting temperature, K (Crystal); method: DSC/DTA
Normal melting temperature, K	uncertainty
311.5	

System: ; phases: Crystal
Fixed: Pressure, kPa = 101.325
Property: Mass density, kg/m3 (Crystal); method: Pycnometric method
Temperature, K	Mass density, kg/m3	uncertainty
298	1246	

System: ; phases: Gas
Property: Molar enthalpy, kJ/mol (Gas); method: Calvet microcalorimetry
Temperature, K	Pressure, kPa	Molar enthalpy, kJ/mol	uncertainty
377	100	97.6	

System: ; phases: Crystal, Liquid, Air at 1 atmosphere
Property: Normal melting temperature, K (Crystal); method: DSC/DTA
Normal melting temperature, K	uncertainty
308	

System: ; phases: Crystal
Fixed: Pressure, kPa = 101.325
Property: Mass density, kg/m3 (Crystal); method: Pycnometric method
Temperature, K	Mass density, kg/m3	uncertainty
298	1251	

System: ; phases: Gas
Property: Molar enthalpy, kJ/mol (Gas); method: Calvet microcalorimetry
Temperature, K	Pressure, kPa	Molar enthalpy, kJ/mol	uncertainty
377	100	91.9	

System: ; phases: Crystal, Liquid, Air at 1 atmosphere
Property: Normal melting temperature, K (Crystal); method: DSC/DTA
Normal melting temperature, K	uncertainty
319	

System: ; phases: Gas
Property: Molar enthalpy, kJ/mol (Gas); method: Calvet microcalorimetry
Temperature, K	Pressure, kPa	Molar enthalpy, kJ/mol	uncertainty
377	100	94.1	

System: ; phases: Crystal, Liquid, Air at 1 atmosphere
Property: Normal melting temperature, K (Crystal); method: DSC/DTA
Normal melting temperature, K	uncertainty
365.5	

System: ; phases: Gas
Property: Molar enthalpy, kJ/mol (Gas); method: Calvet microcalorimetry
Temperature, K	Pressure, kPa	Molar enthalpy, kJ/mol	uncertainty
372	100	103.1	

Reaction: -1  + 1  + 9  + 0.5  + 2.5  + -10.25 
Property: Specific internal energy of reaction at constant volume, J/g
-27447.6

Reaction: -1  + 1  + 9  + 0.5  + 2.5  + -10.25 
Property: Specific internal energy of reaction at constant volume, J/g
-27544.8

Reaction: -1  + 1  + 9  + 0.5  + 2.5  + -10.25 
Property: Specific internal energy of reaction at constant volume, J/g
-27543.3

Reaction: -1  + 2  + 9  + 0.5  + 1.5  + -9.75 
Property: Specific internal energy of reaction at constant volume, J/g
-21977.6
