Measured thermophysical data. Thermodynamic properties of mixtures containing ionic liquids. Activity coefficients at infinite dilution of polar solutes in 4-methyl-N-butyl-pyridinium tetrafluoroborate using gas liquid chromatography
Source: J. Chem. Thermodyn., 2002
Compound 1: 4-methyl-N-butyl-pyridinium tetrafluorborate, C10H16BF4N
Compound 2: methanol, CH4O
Compound 3: ethanol, C2H6O
Compound 4: 1-propanol, C3H8O
Compound 5: 1-butanol, C4H10O
Compound 6: 1-pentanol, C5H12O
Compound 7: 1-hexanol, C6H14O
Compound 8: 2-propanol, C3H8O
Compound 9: 2-methyl-2-propanol, C4H10O
Compound 10: 2-butanol, dl-, C4H10O
Compound 11: 2-methyl-2-butanol, C5H12O
Compound 12: cyclohexanol, C6H12O
Compound 13: acetonitrile, C2H3N
Compound 14: propanone, C3H6O
Compound 15: ethyl ethanoate, C4H8O2
Compound 16: methyl tert-butyl ether, C5H12O
Compound 17: tert-amyl methyl ether, C6H14O
Compound 18: dichloromethane, CH2Cl2
Compound 19: chloroform, CHCl3
Compound 20: carbon tetrachloride, CCl4

System: ; phases: Liquid
Fixed: Pressure, kPa = 101.325
Property: Mass density, kg/m3 (Liquid); method: Vibrating tube method
Temperature, K	Mass density, kg/m3	uncertainty
298.15	1184.24	.2

System: ; phases: Liquid
Fixed: Pressure, kPa = 101
Fixed: Mole fraction = 0
Property: Activity coefficient (Liquid); method: Chromatography
Temperature, K	Activity coefficient	uncertainty
313.76	1.078	.03234
323.02	.995	.02985
333.25	.916	.02748
343.58	.838	.02514

System: ; phases: Liquid
Fixed: Pressure, kPa = 101
Fixed: Mole fraction = 0
Property: Activity coefficient (Liquid); method: Chromatography
Temperature, K	Activity coefficient	uncertainty
313.74	1.754	.05262
322.99	1.602	.04806
333.24	1.454	.04362
343.55	1.33	.0399

System: ; phases: Liquid
Fixed: Pressure, kPa = 101
Fixed: Mole fraction = 0
Property: Activity coefficient (Liquid); method: Chromatography
Temperature, K	Activity coefficient	uncertainty
313.74	2.477	.07431
324.08	2.231	.06693
333.27	1.98	.0594
343.58	1.843	.05529

System: ; phases: Liquid
Fixed: Pressure, kPa = 101
Fixed: Mole fraction = 0
Property: Activity coefficient (Liquid); method: Chromatography
Temperature, K	Activity coefficient	uncertainty
313.88	3.625	.10875
324.02	3.245	.09735
333.31	2.902	.08706
343.58	2.591	.07773

System: ; phases: Liquid
Fixed: Pressure, kPa = 101
Fixed: Mole fraction = 0
Property: Activity coefficient (Liquid); method: Chromatography
Temperature, K	Activity coefficient	uncertainty
333.43	4.262	.12786
343.79	3.746	.11238
354.07	3.381	.10143
363.36	3.104	.09312

System: ; phases: Liquid
Fixed: Pressure, kPa = 101
Fixed: Mole fraction = 0
Property: Activity coefficient (Liquid); method: Chromatography
Temperature, K	Activity coefficient	uncertainty
333.23	5.759	.17277
343.78	5.298	.15894
354.06	4.749	.14247
363.36	4.382	.13146

System: ; phases: Liquid
Fixed: Pressure, kPa = 101
Fixed: Mole fraction = 0
Property: Activity coefficient (Liquid); method: Chromatography
Temperature, K	Activity coefficient	uncertainty
313.8	2.389	.07167
323.95	2.19	.0657
333.36	1.919	.05757
343.55	1.802	.05406

System: ; phases: Liquid
Fixed: Pressure, kPa = 101
Fixed: Mole fraction = 0
Property: Activity coefficient (Liquid); method: Chromatography
Temperature, K	Activity coefficient	uncertainty
313.64	2.701	.08103
324.02	2.505	.07515
333.27	2.268	.06804
343.94	2.035	.06105

System: ; phases: Liquid
Fixed: Pressure, kPa = 101
Fixed: Mole fraction = 0
Property: Activity coefficient (Liquid); method: Chromatography
Temperature, K	Activity coefficient	uncertainty
313.64	3.158	.09474
323.95	2.844	.08532
333.36	2.541	.07623
343.55	2.345	.07035

System: ; phases: Liquid
Fixed: Pressure, kPa = 101
Fixed: Mole fraction = 0
Property: Activity coefficient (Liquid); method: Chromatography
Temperature, K	Activity coefficient	uncertainty
313.73	3.461	.10383
322.94	3.211	.09633
333.23	2.979	.08937
343.58	2.781	.08343

System: ; phases: Liquid
Fixed: Pressure, kPa = 101
Fixed: Mole fraction = 0
Property: Activity coefficient (Liquid); method: Chromatography
Temperature, K	Activity coefficient	uncertainty
333.44	3.34	.1002
343.79	3.116	.09348
354.06	2.919	.08757
363.36	2.773	.08319

System: ; phases: Liquid
Fixed: Pressure, kPa = 101
Fixed: Mole fraction = 0
Property: Activity coefficient (Liquid); method: Chromatography
Temperature, K	Activity coefficient	uncertainty
313.71	.58	.0174
322.93	.577	.01731
333.23	.57	.0171
343.57	.564	.01692

System: ; phases: Liquid
Fixed: Pressure, kPa = 101
Fixed: Mole fraction = 0
Property: Activity coefficient (Liquid); method: Chromatography
Temperature, K	Activity coefficient	uncertainty
313.76	.908	.02724
323.02	.914	.02742
333.25	.919	.02757
343.58	.921	.02763

System: ; phases: Liquid
Fixed: Pressure, kPa = 101
Fixed: Mole fraction = 0
Property: Activity coefficient (Liquid); method: Chromatography
Temperature, K	Activity coefficient	uncertainty
313.72	2.657	.07971
322.99	2.63	.0789
333.36	2.604	.07812
343.79	2.569	.07707

System: ; phases: Liquid
Fixed: Pressure, kPa = 101
Fixed: Mole fraction = 0
Property: Activity coefficient (Liquid); method: Chromatography
Temperature, K	Activity coefficient	uncertainty
313.73	7.388	.22164
323.07	7.247	.21741
333.54	7.078	.21234
343.9	6.908	.20724

System: ; phases: Liquid
Fixed: Pressure, kPa = 101
Fixed: Mole fraction = 0
Property: Activity coefficient (Liquid); method: Chromatography
Temperature, K	Activity coefficient	uncertainty
313.89	11.87	.3561
323.16	11.67	.3501
333.57	11.37	.3411
344.02	11.08	.3324

System: ; phases: Liquid
Fixed: Pressure, kPa = 101
Fixed: Mole fraction = 0
Property: Activity coefficient (Liquid); method: Chromatography
Temperature, K	Activity coefficient	uncertainty
313.68	.748	.02244
323.02	.757	.02271
333.38	.766	.02298
343.78	.772	.02316

System: ; phases: Liquid
Fixed: Pressure, kPa = 101
Fixed: Mole fraction = 0
Property: Activity coefficient (Liquid); method: Chromatography
Temperature, K	Activity coefficient	uncertainty
313.73	.732	.02196
323.05	.768	.02304
333.46	.8	.024
343.96	.832	.02496

System: ; phases: Liquid
Fixed: Pressure, kPa = 101
Fixed: Mole fraction = 0
Property: Activity coefficient (Liquid); method: Chromatography
Temperature, K	Activity coefficient	uncertainty
313.68	3.734	.11202
323.02	3.811	.11433
333.38	3.892	.11676
343.78	3.931	.11793
