Measured thermophysical data. Liquid-Liquid Equilibrium of MTBE + Ethanol + Water and MTBE + 1-Hexanol + Water over the Temperature Range of 288.15 to 308.15 K
Source: J. Chem. Eng. Data, 2005
Compound 1: methyl tert-butyl ether, C5H12O
Compound 2: ethanol, C2H6O
Compound 3: 1-hexanol, C6H14O
Compound 4: water, H2O

System: ; phases: Liquid mixture 1, Liquid mixture 2
Fixed: Pressure, kPa = 101.3
Property: Mass density, kg/m3 (Liquid mixture 1); method: Pycnometric method
Temperature, K	Mole fraction	Mass density, kg/m3	uncertainty
288.15	.9217	746	
288.15	.8812	742	
288.15	.8066	755	
288.15	.6108	770	
288.15	.3711	793	
288.15	.2657	806	
288.15	.1638	838	
298.15	.9259	736.9	
298.15	.8723	741.6	
298.15	.7983	747.8	
298.15	.5997	760.4	
298.15	.3564	788.5	
298.15	.1982	822.4	

System: ; phases: Liquid mixture 2, Liquid mixture 1
Fixed: Pressure, kPa = 101.3
Property: Mass density, kg/m3 (Liquid mixture 2); method: Pycnometric method
Temperature, K	Mole fraction	Mass density, kg/m3	uncertainty
288.15	.012	979	
288.15	.0127	974	
288.15	.0137	967	
288.15	.0162	954	
288.15	.0223	898	
288.15	.0341	918	
288.15	.0582	936	
298.15	.0078	987	
298.15	.0093	974	
298.15	.0104	967	
298.15	.014	954	
298.15	.0204	934	
298.15	.0394	910	

System: ; phases: Liquid mixture 1, Liquid mixture 2
Fixed: Pressure, kPa = 101.3
Property: Mole fraction (Liquid mixture 1); method: Chromatography
Property: Mole fraction (Liquid mixture 2); method: Chromatography
Property: Mole fraction (Liquid mixture 2); method: Chromatography
Temperature, K	Mole fraction	Mole fraction	uncertainty	Mole fraction	uncertainty	Mole fraction	uncertainty
288.15	.9217	0		0		.012	
288.15	.8812	.0304		.0231		.0127	
288.15	.8066	.0744		.0466		.0137	
288.15	.6108	.1702		.0786		.0162	
288.15	.3711	.2184		.1045		.0223	
288.15	.2657	.2243		.1224		.0341	
288.15	.1638	.2009		.1471		.0582	
298.15	.9259	0		0		.0078	
298.15	.8723	.0382		.0223		.0093	
298.15	.7983	.0845		.0445		.0104	
298.15	.5997	.1849		.0787		.014	
298.15	.3564	.2316		.1058		.0204	
298.15	.1982	.2312		.1331		.0394	

System: ; phases: Liquid mixture 1, Liquid mixture 2
Fixed: Pressure, kPa = 101.3
Property: Mass density, kg/m3 (Liquid mixture 1); method: Pycnometric method
Temperature, K	Mole fraction	Mass density, kg/m3	uncertainty
288.15	.9098	742	
288.15	.8105	760	
288.15	.7105	767	
288.15	.5844	776	
288.15	.3293	790	
288.15	.381	795	
288.15	.1829	803	
288.15	.1518	802	
288.15	.103	805	
288.15	.0572	803	
288.15	0	806	
298.15	.9329	744	
298.15	.8329	750	
298.15	.7529	758	
298.15	.6361	767	
298.15	.5505	775	
298.15	.4764	782	
298.15	.1948	823	
298.15	.1462	821	
298.15	.1081	816	
298.15	.0576	812	
298.15	0	807	
308.15	.918	736	
308.15	.7971	748	
308.15	.7161	761	
308.15	.6259	768	
308.15	.5832	773	
308.15	.4878	780	
308.15	.427	785	
308.15	.1595	786	
308.15	.133	792	
308.15	.088	799	
308.15	.0494	804	
308.15	0	802	

System: ; phases: Liquid mixture 2, Liquid mixture 1
Fixed: Pressure, kPa = 101.3
Property: Mass density, kg/m3 (Liquid mixture 2); method: Pycnometric method
Temperature, K	Mole fraction	Mass density, kg/m3	uncertainty
288.15	.0156	976	
288.15	.0119	979	
288.15	.0106	985	
288.15	.0094	986	
288.15	.0084	986	
288.15	.0075	987	
288.15	.0038	989	
288.15	.0031	983	
288.15	.0022	985	
288.15	.0011	981	
288.15	0	974	
298.15	.0087	985	
298.15	.0079	986	
298.15	.0072	986	
298.15	.0068	986	
298.15	.006	987	
298.15	.0054	990	
298.15	.0023	998	
298.15	.002	997	
298.15	.0014	996	
298.15	.0008	998	
298.15	0	1000	
308.15	.0072	997	
308.15	.0065	994	
308.15	.0061	994	
308.15	.0054	995	
308.15	.005	997	
308.15	.0045	995	
308.15	.0042	991	
308.15	.0021	975	
308.15	.0016	976	
308.15	.0012	978	
308.15	.0006	985	
308.15	0	991	

System: ; phases: Liquid mixture 2, Liquid mixture 1
Fixed: Pressure, kPa = 101.3
Property: Mole fraction (Liquid mixture 2); method: Chromatography
Property: Mole fraction (Liquid mixture 1); method: Chromatography
Property: Mole fraction (Liquid mixture 1); method: Chromatography
Temperature, K	Mole fraction	Mole fraction	uncertainty	Mole fraction	uncertainty	Mole fraction	uncertainty
288.15	.0156	0	.0003	.9098		0	
288.15	.0119	.0002	.0003	.8105		.0728	
288.15	.0106	.0003	.0003	.7105		.1386	
288.15	.0094	.0006	.0003	.5844		.2213	
288.15	.0084	.0007	.0003	.3293		.4424	
288.15	.0075	.0007	.0003	.381		.3805	
288.15	.0038	.0021	.0003	.1829		.501	
288.15	.0031	.002	.0003	.1518		.5411	
288.15	.0022	.0023	.0003	.103		.586	
288.15	.0011	.0021	.0003	.0572		.6239	
288.15	0	.0026	.0003	0		.672	
298.15	.0087	0	.0003	.9329		0	
298.15	.0079	.0002	.0003	.8329		.0687	
298.15	.0072	.0003	.0003	.7529		.1226	
298.15	.0068	.0004	.0003	.6361		.2053	
298.15	.006	.0005	.0003	.5505		.263	
298.15	.0054	.0005	.0003	.4764		.3164	
298.15	.0023	.0009	.0003	.1948		.5066	
298.15	.002	.0009	.0003	.1462		.5388	
298.15	.0014	.0009	.0003	.1081		.5851	
298.15	.0008	.001	.0003	.0576		.6351	
298.15	0	.0012	.0003	0		.6763	
308.15	.0072	0	.0003	.918		0	
308.15	.0065	.0003	.0003	.7971		.086	
308.15	.0061	.0003	.0003	.7161		.1465	
308.15	.0054	.0004	.0003	.6259		.2049	
308.15	.005	.0004	.0003	.5832		.2413	
308.15	.0045	.0005	.0003	.4878		.311	
308.15	.0042	.0007	.0003	.427		.3463	
308.15	.0021	.0014	.0003	.1595		.4426	
308.15	.0016	.0011	.0003	.133		.4738	
308.15	.0012	.0016	.0003	.088		.5155	
308.15	.0006	.0018	.0003	.0494		.5513	
308.15	0	.0023	.0003	0		.6039	

System: ; phases: Liquid mixture 1, Liquid mixture 2
Property: Mole fraction (Liquid mixture 1); method: Chromatography
Temperature, K	Pressure, kPa	Mole fraction	uncertainty
288.15	101.3	.9217	
298.15	101.3	.9259	
288.15	101.3	.9098	
298.15	101.3	.9329	
308.15	101.3	.918	

System: ; phases: Liquid mixture 2, Liquid mixture 1
Property: Mole fraction (Liquid mixture 2); method: Chromatography
Temperature, K	Pressure, kPa	Mole fraction	uncertainty
288.15	101.3	.012	
298.15	101.3	.0078	
288.15	101.3	.0156	
298.15	101.3	.0087	
308.15	101.3	.0072	

System: ; phases: Liquid mixture 1, Liquid mixture 2
Property: Mass density, kg/m3 (Liquid mixture 1); method: Pycnometric method
Temperature, K	Pressure, kPa	Mass density, kg/m3	uncertainty
288.15	101.3	806	
298.15	101.3	807	
308.15	101.3	802	

System: ; phases: Liquid mixture 2, Liquid mixture 1
Property: Mass density, kg/m3 (Liquid mixture 2); method: Pycnometric method
Temperature, K	Pressure, kPa	Mass density, kg/m3	uncertainty
288.15	101.3	974	
298.15	101.3	1000	
308.15	101.3	991	

System: ; phases: Liquid mixture 2, Liquid mixture 1
Property: Mole fraction (Liquid mixture 2); method: Chromatography
Temperature, K	Pressure, kPa	Mole fraction	uncertainty
288.15	101.3	.0026	.0003
298.15	101.3	.0012	.0003
308.15	101.3	.0023	.0003

System: ; phases: Liquid mixture 1, Liquid mixture 2
Property: Mole fraction (Liquid mixture 1); method: Chromatography
Temperature, K	Pressure, kPa	Mole fraction	uncertainty
288.15	101.3	.672	
298.15	101.3	.6763	
308.15	101.3	.6039	
