Measured thermophysical data. Examination of enthalpies of mixing in liquid gallium yttrium alloys by high-temperature calorimetry
Source: Thermochim. Acta, 2005
Compound 1: gallium, Ga
Compound 2: yttrium, Y

System: ; phases: Liquid
Fixed: Temperature, K = 1750
Fixed: Pressure, kPa = 101
Property: Partial molar enthalpy, kJ/mol (Liquid); method: Drop calorimetry
Mole fraction	Partial molar enthalpy, kJ/mol	uncertainty
.0029	-197.64	10
.0098	-161.69	10
.0179	-182.11	10
.0264	-204.58	10
.0354	-187.65	10
.0453	-182.78	10
.0558	-168.85	10
.0661	-178.72	10
.0766	-193.67	10
.0876	-193.52	10
.0989	-179	10
.1103	-184.08	10
.122	-205.01	10
.1338	-198.32	10
.1457	-185.45	10
.1579	-195.55	10
.1707	-187.04	10
.1847	-199	10
.1997	-182.15	10
.2143	-190.71	10
.2287	-200.39	10
.243	-174.1	10
.257	-187.4	10
.2711	-196.87	10
.2851	-167.07	10
.3	-155.06	10
.3156	-173.28	10
.3312	-146.85	10
.3465	-130.79	10
.3613	-133.99	10
.3758	-115.41	10
.3902	-95.63	10
.4044	-89.91	10
.4184	-90.73	10
.432	-71.18	10
.4456	-59.31	10
.4597	-53.75	10
.4738	-49.97	10
.4874	-29.58	10
.5007	-15.33	10
.5142	-8.69	10
.528	-20.35	10
.5418	-2.06	10
.5552	-15.24	10
.569	-12.78	10
.5831	-5.99	10
.5965	.12	10
.0052	-207.66	10
.0159	-186.71	10
.0273	-177	10
.039	-206.33	10
.0509	-205.59	10
.063	-191.27	10
.0751	-195	10
.0882	-202.88	10
.1028	-201.19	10
.1184	-190.01	10
.1343	-188.55	10
.1492	-194.86	10
.1634	-178.85	10
.1774	-204.83	10
.1911	-194.12	10
.2045	-202.24	10
.2177	-193.69	10
.2309	-184.66	10
.2443	-192.01	10
.2577	-186.33	10
.2711	-164.99	10
.2848	-156.29	10
.2996	-172.21	10
.3149	-158.71	10
.3298	-151.23	10
