Measured thermophysical data. Measurement and analysis of results obtained on  biological substances with d.s.c.
Source: J. Chem. Thermodyn., 2001
Compound 1: lysozyme, {LZ}, purity 95%
Compound 2: glycine, C2H5NO2
Compound 3: hydrogen chloride, ClH
Compound 4: water, H2O

System: lysozyme; phases: Solution
Fixed: Pressure, kPa = 101.325
Fixed: Amount concentration (molarity), mol/dm3 of glycine = 0.1
Fixed: Amount concentration (molarity), mol/dm3 of hydrogen chloride = 0.1
Property: Zero-Gibbs energy temperature, K (Solution); method: DSC
Property: Molar entropy of transition or fusion, J/K/mol (Solution); method: DSC
Property: van't Hoff enthalpy of transition, kJ/mol (Solution); method: DSC
pH	Ratio of mass of solute to volume of solution, kg/m3 of lysozyme	Zero-Gibbs energy temperature, K	uncertainty	Molar entropy of transition or fusion, J/K/mol	uncertainty	van't Hoff enthalpy of transition, kJ/mol	uncertainty
2.5	4.81	331.4		393		392	
2.5	4.81	331.5		378		391	
2.5	4.81	331.7		397		406	
2.5	0.97	331.6		403		403	
2.5	0.97	331.6		403		403	
2.5	0.98	331.5		406		406	
2.5	0.95	331.5		401		402	
2.5	2.28	331.5		397		401	
2.5	2.28	331.5		401		402	
2.3	1.00	331.3		401		382	
2.3	2.32	331.6		427		373	
2.3	2.36	331.9		434		369	
2.3	2.36	331.6		439		368	
2.3	4.72	330.3		436		363	
2.3	4.77	330.5		411		373	
2.3	4.77	331.6		401		377	
2.3	9.70	331.9		434		366	
2.3	9.70	331.9		423		373	
2.5	1.00	331.1		396		396	
2.5	1.00	330.8		418		418	
2.5	1.00	331.1		401		403	
2.5	2.41	330.6		386		388	
2.5	2.41	330.8		419		418	
2.5	2.41	331.2		396		398	
2.5	4.81	330.9		386		388	
2.5	4.81	330.8		418		418	
2.5	10.00	331.5		396		398	
2.5	10.00	330.9		415		416	
2.3	2.00	330.4		402		402	
2.3	3.80	330.6		401		401	
2.3	2.40	329.4		381		395	
2.4	3.27	331.8		419		423	
2.4	2.79	330.5		382		408	
2.5	2.48	331.3		377		404	
