Measured thermophysical data. The role of water in the thermodynamics of drug binding to cyclodextrin
Source: J. Chem. Thermodyn., 2007
Compound 1: .beta.-cyclodextrin, C42H70O35, purity 98%
Compound 2: 2-butanone, 4-(6-methoxy-2-naphthalenyl)-, C15H16O2
Compound 3: sodium phosphate, Na3O4P
Compound 4: complex, 2-butanone, 4-(6-methoxy-2-naphthalenyl)- with .beta.-cyclodextrin, C57H86O37
Compound 5: phosphoric acid, H3O4P

Reaction: -1 .beta.-cyclodextrin + -1 2-butanone, 4-(6-methoxy-2-naphthalenyl)- + 1 complex, 2-butanone, 4-(6-methoxy-2-naphthalenyl)- with .beta.-cyclodextrin
Property: Equilibrium constant in terms of mole fraction
Property: Molar Gibbs energy of reaction, kJ/mol
293.15	3.30	-19.7
298.15	3.79	-20.4
303.15	2.94	-20.1
308.15	2.37	-19.9
313.15	1.97	-19.8
