Measured thermophysical data. Influence of retinoids on phosphatidylethanolamine  lipid polymorphism
Source: Biochimica et Biophysica Acta, 1992
Compound 1: 9-Octadecenoic acid, 1-[[[(2-aminoethoxy)hydroxyphosphinyl]oxy]methyl]-1,2-ethanediyl ester, (E,E)-, C41H79NO8P
Compound 2: ethylenediaminetetraacetic acid, C10H16N2O8
Compound 3: 4-(2-hydroxyethyl)-1-piperazineethanesulfonic acid, C8H18N2O4S
Compound 4: sodium chloride, ClNa
Compound 5: water, H2O, purity 99.9%

System: 9-Octadecenoic acid, 1-[[[(2-aminoethoxy)hydroxyphosphinyl]oxy]methyl]-1,2-ethanediyl ester, (E,E)-; phases: Solution
Fixed: Pressure, kPa = 101.325
Property: Peak temperature, K (Solution); method: DSC
Property: Molar enthalpy of transition or fusion, kJ/mol (Solution); method: DSC
pH	Ionic strength (amount concentration basis), mol/dm3	Peak temperature, K	uncertainty	Molar enthalpy of transition or fusion, kJ/mol	uncertainty
7.4	0.20	322.4		2.9	
