Measured thermophysical data. Thermodynamic and Quantum Chemical Study of the Conversion of Chorismate to  (Pyruvate + 4-Hydroxybenzoate)
Source: J. Phys. Chem. B, 1998
Compound 1: chorismic acid, C10H10O6, purity 95.1%
Compound 2: chorismate lyase, {CL}
Compound 3: p-hydroxybenzoic acid, C7H6O3
Compound 4: pyruvic acid, C3H4O3
Compound 5: phosphoric acid, H3O4P
Compound 6: phosphoric acid, dipotassium salt, H3K2O4P
Compound 7: water, H2O
Compound 8: sodium chloride, NaCl

Reaction: -1 chorismic acid + 1 p-hydroxybenzoic acid + 1 pyruvic acid
Property: Molar enthalpy of reaction, kJ/mol
298.15	-144.1
