Measured thermophysical data. Solubilities of L-cystine, L-tyrosine,  L-leucine, and glycine in sodium chloride  solutions at various pH values
Source: J. Chem. Thermodyn., 1998
Compound 1: L-cystine, C6H12N2O4S2, purity 99%
Compound 2: water, H2O, purity 99.99%
Compound 3: sodium chloride, ClNa, purity 99.9%
Compound 4: hydrogen chloride, ClH

System: L-cystine; phases: Solution, Crystal
Fixed: Temperature, K = 298
Fixed: Pressure, kPa = 101
Property: Molality, mol/kg (Solution); method: gravimetric analysis
pH	Solvent: Amount concentration (molarity), mol/dm3 of sodium chloride	Molality, mol/kg	uncertainty
0.00	0	0.09412	
1.03	0	0.01701	
2.11	0	0.00145	
7.81	0	0.00161	
10.93	0	0.00450	
12.28	0	0.02825	
0.01	0.5	0.10315	
1.05	0.5	0.02039	
2.12	0.5	0.00156	
7.81	0.5	0.00169	
10.93	0.5	0.00465	
12.32	0.5	0.03125	
0.01	1.0	0.10911	
1.05	1.0	0.02365	
2.14	1.0	0.00172	
7.79	1.0	0.00181	
10.92	1.0	0.00517	
12.35	1.0	0.03392	
7.79	1.5	0.00211	
0.02	1.5	0.11864	
10.90	1.5	0.00552	
2.14	1.5	0.00189	
1.06	1.5	0.02398	
12.31	1.5	0.03716	
2.15	2.0	0.00201	
10.90	2.0	0.00567	
7.76	2.0	0.00233	
0.02	2.0	0.12719	
12.30	2.0	0.03722	
1.06	2.0	0.02401	
2.17	2.5	0.00234	
0.03	2.5	0.14087	
12.29	2.5	0.04087	
10.88	2.5	0.00593	
7.79	2.5	0.00228	
1.07	2.5	0.02447	
1.08	3.0	0.02437	
2.17	3.0	0.00247	
7.78	3.0	0.00242	
10.89	3.0	0.00596	
12.32	3.0	0.04212	
0.02	3.0	0.14399	
